/*--------------------------------*- C++ -*----------------------------------*\
  =========                 |
  \\      /  F ield         | OpenFOAM: The Open Source CFD Toolbox
   \\    /   O peration     | Website:  https://openfoam.org
    \\  /    A nd           | Version:  7
     \\/     M anipulation  |
\*---------------------------------------------------------------------------*/
FoamFile
{
    version     2.0;
    format      ascii;
    class       volTensorField;
    location    "0.03";
    object      K;
}
// * * * * * * * * * * * * * * * * * * * * * * * * * * * * * * * * * * * * * //

dimensions      [0 2 0 0 0 0 0];

internalField   nonuniform List<tensor> 
20000
(
(0.000196102 0 0 0 0.000196102 0 0 0 0.000196102)
(0.000190475 0 0 0 0.000190475 0 0 0 0.000190475)
(0.00018538 0 0 0 0.00018538 0 0 0 0.00018538)
(0.00018096 0 0 0 0.00018096 0 0 0 0.00018096)
(0.000177283 0 0 0 0.000177283 0 0 0 0.000177283)
(0.000174331 0 0 0 0.000174331 0 0 0 0.000174331)
(0.00017201 0 0 0 0.00017201 0 0 0 0.00017201)
(0.000170151 0 0 0 0.000170151 0 0 0 0.000170151)
(0.000168542 0 0 0 0.000168542 0 0 0 0.000168542)
(0.000166946 0 0 0 0.000166946 0 0 0 0.000166946)
(0.000165141 0 0 0 0.000165141 0 0 0 0.000165141)
(0.000162952 0 0 0 0.000162952 0 0 0 0.000162952)
(0.000160287 0 0 0 0.000160287 0 0 0 0.000160287)
(0.000157152 0 0 0 0.000157152 0 0 0 0.000157152)
(0.000153658 0 0 0 0.000153658 0 0 0 0.000153658)
(0.000150001 0 0 0 0.000150001 0 0 0 0.000150001)
(0.000146434 0 0 0 0.000146434 0 0 0 0.000146434)
(0.000143231 0 0 0 0.000143231 0 0 0 0.000143231)
(0.00014065 0 0 0 0.00014065 0 0 0 0.00014065)
(0.000138908 0 0 0 0.000138908 0 0 0 0.000138908)
(0.000138152 0 0 0 0.000138152 0 0 0 0.000138152)
(0.000138453 0 0 0 0.000138453 0 0 0 0.000138453)
(0.000139795 0 0 0 0.000139795 0 0 0 0.000139795)
(0.000142064 0 0 0 0.000142064 0 0 0 0.000142064)
(0.000145052 0 0 0 0.000145052 0 0 0 0.000145052)
(0.00014846 0 0 0 0.00014846 0 0 0 0.00014846)
(0.000151921 0 0 0 0.000151921 0 0 0 0.000151921)
(0.000155036 0 0 0 0.000155036 0 0 0 0.000155036)
(0.000157434 0 0 0 0.000157434 0 0 0 0.000157434)
(0.00015883 0 0 0 0.00015883 0 0 0 0.00015883)
(0.000159084 0 0 0 0.000159084 0 0 0 0.000159084)
(0.00015823 0 0 0 0.00015823 0 0 0 0.00015823)
(0.000156471 0 0 0 0.000156471 0 0 0 0.000156471)
(0.000154144 0 0 0 0.000154144 0 0 0 0.000154144)
(0.000151657 0 0 0 0.000151657 0 0 0 0.000151657)
(0.000149427 0 0 0 0.000149427 0 0 0 0.000149427)
(0.00014782 0 0 0 0.00014782 0 0 0 0.00014782)
(0.000147113 0 0 0 0.000147113 0 0 0 0.000147113)
(0.000147468 0 0 0 0.000147468 0 0 0 0.000147468)
(0.000148911 0 0 0 0.000148911 0 0 0 0.000148911)
(0.000151324 0 0 0 0.000151324 0 0 0 0.000151324)
(0.000154441 0 0 0 0.000154441 0 0 0 0.000154441)
(0.000157853 0 0 0 0.000157853 0 0 0 0.000157853)
(0.000161039 0 0 0 0.000161039 0 0 0 0.000161039)
(0.000163421 0 0 0 0.000163421 0 0 0 0.000163421)
(0.000164459 0 0 0 0.000164459 0 0 0 0.000164459)
(0.000163752 0 0 0 0.000163752 0 0 0 0.000163752)
(0.000161127 0 0 0 0.000161127 0 0 0 0.000161127)
(0.000156689 0 0 0 0.000156689 0 0 0 0.000156689)
(0.000150801 0 0 0 0.000150801 0 0 0 0.000150801)
(0.000144007 0 0 0 0.000144007 0 0 0 0.000144007)
(0.000136928 0 0 0 0.000136928 0 0 0 0.000136928)
(0.000130156 0 0 0 0.000130156 0 0 0 0.000130156)
(0.000124177 0 0 0 0.000124177 0 0 0 0.000124177)
(0.000119333 0 0 0 0.000119333 0 0 0 0.000119333)
(0.000115815 0 0 0 0.000115815 0 0 0 0.000115815)
(0.000113673 0 0 0 0.000113673 0 0 0 0.000113673)
(0.000112827 0 0 0 0.000112827 0 0 0 0.000112827)
(0.000113082 0 0 0 0.000113082 0 0 0 0.000113082)
(0.000114131 0 0 0 0.000114131 0 0 0 0.000114131)
(0.000115572 0 0 0 0.000115572 0 0 0 0.000115572)
(0.000116935 0 0 0 0.000116935 0 0 0 0.000116935)
(0.000117741 0 0 0 0.000117741 0 0 0 0.000117741)
(0.000117573 0 0 0 0.000117573 0 0 0 0.000117573)
(0.000116159 0 0 0 0.000116159 0 0 0 0.000116159)
(0.000113439 0 0 0 0.000113439 0 0 0 0.000113439)
(0.000109575 0 0 0 0.000109575 0 0 0 0.000109575)
(0.000104923 0 0 0 0.000104923 0 0 0 0.000104923)
(9.99506e-05 0 0 0 9.99506e-05 0 0 0 9.99506e-05)
(9.51523e-05 0 0 0 9.51523e-05 0 0 0 9.51523e-05)
(9.09758e-05 0 0 0 9.09758e-05 0 0 0 9.09758e-05)
(8.77799e-05 0 0 0 8.77799e-05 0 0 0 8.77799e-05)
(8.58218e-05 0 0 0 8.58218e-05 0 0 0 8.58218e-05)
(8.52647e-05 0 0 0 8.52647e-05 0 0 0 8.52647e-05)
(8.61888e-05 0 0 0 8.61888e-05 0 0 0 8.61888e-05)
(8.85945e-05 0 0 0 8.85945e-05 0 0 0 8.85945e-05)
(9.23923e-05 0 0 0 9.23923e-05 0 0 0 9.23923e-05)
(9.73797e-05 0 0 0 9.73797e-05 0 0 0 9.73797e-05)
(0.000103215 0 0 0 0.000103215 0 0 0 0.000103215)
(0.000109407 0 0 0 0.000109407 0 0 0 0.000109407)
(0.000115334 0 0 0 0.000115334 0 0 0 0.000115334)
(0.000120318 0 0 0 0.000120318 0 0 0 0.000120318)
(0.000123741 0 0 0 0.000123741 0 0 0 0.000123741)
(0.000125174 0 0 0 0.000125174 0 0 0 0.000125174)
(0.000124479 0 0 0 0.000124479 0 0 0 0.000124479)
(0.000121837 0 0 0 0.000121837 0 0 0 0.000121837)
(0.000117697 0 0 0 0.000117697 0 0 0 0.000117697)
(0.000112657 0 0 0 0.000112657 0 0 0 0.000112657)
(0.000107344 0 0 0 0.000107344 0 0 0 0.000107344)
(0.000102302 0 0 0 0.000102302 0 0 0 0.000102302)
(9.79397e-05 0 0 0 9.79397e-05 0 0 0 9.79397e-05)
(9.45099e-05 0 0 0 9.45099e-05 0 0 0 9.45099e-05)
(9.21202e-05 0 0 0 9.21202e-05 0 0 0 9.21202e-05)
(9.07521e-05 0 0 0 9.07521e-05 0 0 0 9.07521e-05)
(9.02802e-05 0 0 0 9.02802e-05 0 0 0 9.02802e-05)
(9.04875e-05 0 0 0 9.04875e-05 0 0 0 9.04875e-05)
(9.10811e-05 0 0 0 9.10811e-05 0 0 0 9.10811e-05)
(9.17159e-05 0 0 0 9.17159e-05 0 0 0 9.17159e-05)
(9.20317e-05 0 0 0 9.20317e-05 0 0 0 9.20317e-05)
(9.17037e-05 0 0 0 9.17037e-05 0 0 0 9.17037e-05)
(9.04988e-05 0 0 0 9.04988e-05 0 0 0 9.04988e-05)
(8.83213e-05 0 0 0 8.83213e-05 0 0 0 8.83213e-05)
(8.52317e-05 0 0 0 8.52317e-05 0 0 0 8.52317e-05)
(8.14303e-05 0 0 0 8.14303e-05 0 0 0 8.14303e-05)
(7.72116e-05 0 0 0 7.72116e-05 0 0 0 7.72116e-05)
(7.29049e-05 0 0 0 7.29049e-05 0 0 0 7.29049e-05)
(6.88194e-05 0 0 0 6.88194e-05 0 0 0 6.88194e-05)
(6.52076e-05 0 0 0 6.52076e-05 0 0 0 6.52076e-05)
(6.22498e-05 0 0 0 6.22498e-05 0 0 0 6.22498e-05)
(6.00552e-05 0 0 0 6.00552e-05 0 0 0 6.00552e-05)
(5.86731e-05 0 0 0 5.86731e-05 0 0 0 5.86731e-05)
(5.81058e-05 0 0 0 5.81058e-05 0 0 0 5.81058e-05)
(5.83189e-05 0 0 0 5.83189e-05 0 0 0 5.83189e-05)
(5.92478e-05 0 0 0 5.92478e-05 0 0 0 5.92478e-05)
(6.08009e-05 0 0 0 6.08009e-05 0 0 0 6.08009e-05)
(6.28613e-05 0 0 0 6.28613e-05 0 0 0 6.28613e-05)
(6.52906e-05 0 0 0 6.52906e-05 0 0 0 6.52906e-05)
(6.7937e-05 0 0 0 6.7937e-05 0 0 0 6.7937e-05)
(7.06472e-05 0 0 0 7.06472e-05 0 0 0 7.06472e-05)
(7.32819e-05 0 0 0 7.32819e-05 0 0 0 7.32819e-05)
(7.57319e-05 0 0 0 7.57319e-05 0 0 0 7.57319e-05)
(7.79289e-05 0 0 0 7.79289e-05 0 0 0 7.79289e-05)
(7.985e-05 0 0 0 7.985e-05 0 0 0 7.985e-05)
(8.15134e-05 0 0 0 8.15134e-05 0 0 0 8.15134e-05)
(8.29676e-05 0 0 0 8.29676e-05 0 0 0 8.29676e-05)
(8.4276e-05 0 0 0 8.4276e-05 0 0 0 8.4276e-05)
(8.55029e-05 0 0 0 8.55029e-05 0 0 0 8.55029e-05)
(8.66999e-05 0 0 0 8.66999e-05 0 0 0 8.66999e-05)
(8.78991e-05 0 0 0 8.78991e-05 0 0 0 8.78991e-05)
(8.91101e-05 0 0 0 8.91101e-05 0 0 0 8.91101e-05)
(9.03228e-05 0 0 0 9.03228e-05 0 0 0 9.03228e-05)
(9.15146e-05 0 0 0 9.15146e-05 0 0 0 9.15146e-05)
(9.26602e-05 0 0 0 9.26602e-05 0 0 0 9.26602e-05)
(9.37426e-05 0 0 0 9.37426e-05 0 0 0 9.37426e-05)
(9.47629e-05 0 0 0 9.47629e-05 0 0 0 9.47629e-05)
(9.57466e-05 0 0 0 9.57466e-05 0 0 0 9.57466e-05)
(9.67458e-05 0 0 0 9.67458e-05 0 0 0 9.67458e-05)
(9.78356e-05 0 0 0 9.78356e-05 0 0 0 9.78356e-05)
(9.91067e-05 0 0 0 9.91067e-05 0 0 0 9.91067e-05)
(0.000100654 0 0 0 0.000100654 0 0 0 0.000100654)
(0.000102564 0 0 0 0.000102564 0 0 0 0.000102564)
(0.000104904 0 0 0 0.000104904 0 0 0 0.000104904)
(0.000107707 0 0 0 0.000107707 0 0 0 0.000107707)
(0.000110962 0 0 0 0.000110962 0 0 0 0.000110962)
(0.000114609 0 0 0 0.000114609 0 0 0 0.000114609)
(0.000118534 0 0 0 0.000118534 0 0 0 0.000118534)
(0.000122571 0 0 0 0.000122571 0 0 0 0.000122571)
(0.000126517 0 0 0 0.000126517 0 0 0 0.000126517)
(0.000130152 0 0 0 0.000130152 0 0 0 0.000130152)
(0.000133267 0 0 0 0.000133267 0 0 0 0.000133267)
(0.000135696 0 0 0 0.000135696 0 0 0 0.000135696)
(0.000137344 0 0 0 0.000137344 0 0 0 0.000137344)
(0.000138205 0 0 0 0.000138205 0 0 0 0.000138205)
(0.000138362 0 0 0 0.000138362 0 0 0 0.000138362)
(0.000137978 0 0 0 0.000137978 0 0 0 0.000137978)
(0.000137266 0 0 0 0.000137266 0 0 0 0.000137266)
(0.000136462 0 0 0 0.000136462 0 0 0 0.000136462)
(0.000135798 0 0 0 0.000135798 0 0 0 0.000135798)
(0.000135473 0 0 0 0.000135473 0 0 0 0.000135473)
(0.000135641 0 0 0 0.000135641 0 0 0 0.000135641)
(0.000136402 0 0 0 0.000136402 0 0 0 0.000136402)
(0.000137796 0 0 0 0.000137796 0 0 0 0.000137796)
(0.000139811 0 0 0 0.000139811 0 0 0 0.000139811)
(0.000142383 0 0 0 0.000142383 0 0 0 0.000142383)
(0.000145413 0 0 0 0.000145413 0 0 0 0.000145413)
(0.000148774 0 0 0 0.000148774 0 0 0 0.000148774)
(0.000152333 0 0 0 0.000152333 0 0 0 0.000152333)
(0.000155964 0 0 0 0.000155964 0 0 0 0.000155964)
(0.000159571 0 0 0 0.000159571 0 0 0 0.000159571)
(0.000163098 0 0 0 0.000163098 0 0 0 0.000163098)
(0.000166531 0 0 0 0.000166531 0 0 0 0.000166531)
(0.000169901 0 0 0 0.000169901 0 0 0 0.000169901)
(0.000173267 0 0 0 0.000173267 0 0 0 0.000173267)
(0.000176703 0 0 0 0.000176703 0 0 0 0.000176703)
(0.000180272 0 0 0 0.000180272 0 0 0 0.000180272)
(0.00018401 0 0 0 0.00018401 0 0 0 0.00018401)
(0.0001879 0 0 0 0.0001879 0 0 0 0.0001879)
(0.000191869 0 0 0 0.000191869 0 0 0 0.000191869)
(0.000195775 0 0 0 0.000195775 0 0 0 0.000195775)
(0.00019942 0 0 0 0.00019942 0 0 0 0.00019942)
(0.000202566 0 0 0 0.000202566 0 0 0 0.000202566)
(0.000204965 0 0 0 0.000204965 0 0 0 0.000204965)
(0.000206396 0 0 0 0.000206396 0 0 0 0.000206396)
(0.000206708 0 0 0 0.000206708 0 0 0 0.000206708)
(0.000205847 0 0 0 0.000205847 0 0 0 0.000205847)
(0.000203881 0 0 0 0.000203881 0 0 0 0.000203881)
(0.000200992 0 0 0 0.000200992 0 0 0 0.000200992)
(0.000197459 0 0 0 0.000197459 0 0 0 0.000197459)
(0.000193627 0 0 0 0.000193627 0 0 0 0.000193627)
(0.000189863 0 0 0 0.000189863 0 0 0 0.000189863)
(0.000186522 0 0 0 0.000186522 0 0 0 0.000186522)
(0.000183917 0 0 0 0.000183917 0 0 0 0.000183917)
(0.000182301 0 0 0 0.000182301 0 0 0 0.000182301)
(0.000181854 0 0 0 0.000181854 0 0 0 0.000181854)
(0.000182684 0 0 0 0.000182684 0 0 0 0.000182684)
(0.00018482 0 0 0 0.00018482 0 0 0 0.00018482)
(0.000188214 0 0 0 0.000188214 0 0 0 0.000188214)
(0.000192741 0 0 0 0.000192741 0 0 0 0.000192741)
(0.000198198 0 0 0 0.000198198 0 0 0 0.000198198)
(0.000204304 0 0 0 0.000204304 0 0 0 0.000204304)
(0.000189526 0 0 0 0.000189526 0 0 0 0.000189526)
(0.00018809 0 0 0 0.00018809 0 0 0 0.00018809)
(0.000186764 0 0 0 0.000186764 0 0 0 0.000186764)
(0.00018577 0 0 0 0.00018577 0 0 0 0.00018577)
(0.000185284 0 0 0 0.000185284 0 0 0 0.000185284)
(0.000185413 0 0 0 0.000185413 0 0 0 0.000185413)
(0.000186174 0 0 0 0.000186174 0 0 0 0.000186174)
(0.000187486 0 0 0 0.000187486 0 0 0 0.000187486)
(0.000189177 0 0 0 0.000189177 0 0 0 0.000189177)
(0.000190993 0 0 0 0.000190993 0 0 0 0.000190993)
(0.000192634 0 0 0 0.000192634 0 0 0 0.000192634)
(0.000193791 0 0 0 0.000193791 0 0 0 0.000193791)
(0.000194194 0 0 0 0.000194194 0 0 0 0.000194194)
(0.000193657 0 0 0 0.000193657 0 0 0 0.000193657)
(0.000192116 0 0 0 0.000192116 0 0 0 0.000192116)
(0.000189635 0 0 0 0.000189635 0 0 0 0.000189635)
(0.000186398 0 0 0 0.000186398 0 0 0 0.000186398)
(0.000182674 0 0 0 0.000182674 0 0 0 0.000182674)
(0.000178767 0 0 0 0.000178767 0 0 0 0.000178767)
(0.000174967 0 0 0 0.000174967 0 0 0 0.000174967)
(0.000171512 0 0 0 0.000171512 0 0 0 0.000171512)
(0.000168559 0 0 0 0.000168559 0 0 0 0.000168559)
(0.000166167 0 0 0 0.000166167 0 0 0 0.000166167)
(0.000164298 0 0 0 0.000164298 0 0 0 0.000164298)
(0.000162824 0 0 0 0.000162824 0 0 0 0.000162824)
(0.000161554 0 0 0 0.000161554 0 0 0 0.000161554)
(0.000160259 0 0 0 0.000160259 0 0 0 0.000160259)
(0.000158712 0 0 0 0.000158712 0 0 0 0.000158712)
(0.000156732 0 0 0 0.000156732 0 0 0 0.000156732)
(0.000154224 0 0 0 0.000154224 0 0 0 0.000154224)
(0.000151198 0 0 0 0.000151198 0 0 0 0.000151198)
(0.000147784 0 0 0 0.000147784 0 0 0 0.000147784)
(0.000144206 0 0 0 0.000144206 0 0 0 0.000144206)
(0.000140757 0 0 0 0.000140757 0 0 0 0.000140757)
(0.000137755 0 0 0 0.000137755 0 0 0 0.000137755)
(0.000135504 0 0 0 0.000135504 0 0 0 0.000135504)
(0.000134261 0 0 0 0.000134261 0 0 0 0.000134261)
(0.000134216 0 0 0 0.000134216 0 0 0 0.000134216)
(0.000135475 0 0 0 0.000135475 0 0 0 0.000135475)
(0.000138041 0 0 0 0.000138041 0 0 0 0.000138041)
(0.000141796 0 0 0 0.000141796 0 0 0 0.000141796)
(0.000146491 0 0 0 0.000146491 0 0 0 0.000146491)
(0.000151727 0 0 0 0.000151727 0 0 0 0.000151727)
(0.000156967 0 0 0 0.000156967 0 0 0 0.000156967)
(0.000161576 0 0 0 0.000161576 0 0 0 0.000161576)
(0.000164902 0 0 0 0.000164902 0 0 0 0.000164902)
(0.000166379 0 0 0 0.000166379 0 0 0 0.000166379)
(0.000165645 0 0 0 0.000165645 0 0 0 0.000165645)
(0.000162626 0 0 0 0.000162626 0 0 0 0.000162626)
(0.000157551 0 0 0 0.000157551 0 0 0 0.000157551)
(0.000150908 0 0 0 0.000150908 0 0 0 0.000150908)
(0.000143336 0 0 0 0.000143336 0 0 0 0.000143336)
(0.000135506 0 0 0 0.000135506 0 0 0 0.000135506)
(0.000128016 0 0 0 0.000128016 0 0 0 0.000128016)
(0.000121327 0 0 0 0.000121327 0 0 0 0.000121327)
(0.000115743 0 0 0 0.000115743 0 0 0 0.000115743)
(0.000111413 0 0 0 0.000111413 0 0 0 0.000111413)
(0.000108355 0 0 0 0.000108355 0 0 0 0.000108355)
(0.00010648 0 0 0 0.00010648 0 0 0 0.00010648)
(0.00010561 0 0 0 0.00010561 0 0 0 0.00010561)
(0.000105499 0 0 0 0.000105499 0 0 0 0.000105499)
(0.000105848 0 0 0 0.000105848 0 0 0 0.000105848)
(0.000106331 0 0 0 0.000106331 0 0 0 0.000106331)
(0.000106627 0 0 0 0.000106627 0 0 0 0.000106627)
(0.000106465 0 0 0 0.000106465 0 0 0 0.000106465)
(0.000105662 0 0 0 0.000105662 0 0 0 0.000105662)
(0.000104157 0 0 0 0.000104157 0 0 0 0.000104157)
(0.000102011 0 0 0 0.000102011 0 0 0 0.000102011)
(9.93962e-05 0 0 0 9.93962e-05 0 0 0 9.93962e-05)
(9.65563e-05 0 0 0 9.65563e-05 0 0 0 9.65563e-05)
(9.37613e-05 0 0 0 9.37613e-05 0 0 0 9.37613e-05)
(9.12664e-05 0 0 0 9.12664e-05 0 0 0 9.12664e-05)
(8.92814e-05 0 0 0 8.92814e-05 0 0 0 8.92814e-05)
(8.79539e-05 0 0 0 8.79539e-05 0 0 0 8.79539e-05)
(8.73614e-05 0 0 0 8.73614e-05 0 0 0 8.73614e-05)
(8.75106e-05 0 0 0 8.75106e-05 0 0 0 8.75106e-05)
(8.83384e-05 0 0 0 8.83384e-05 0 0 0 8.83384e-05)
(8.97143e-05 0 0 0 8.97143e-05 0 0 0 8.97143e-05)
(9.14462e-05 0 0 0 9.14462e-05 0 0 0 9.14462e-05)
(9.32929e-05 0 0 0 9.32929e-05 0 0 0 9.32929e-05)
(9.49858e-05 0 0 0 9.49858e-05 0 0 0 9.49858e-05)
(9.62615e-05 0 0 0 9.62615e-05 0 0 0 9.62615e-05)
(9.68997e-05 0 0 0 9.68997e-05 0 0 0 9.68997e-05)
(9.67597e-05 0 0 0 9.67597e-05 0 0 0 9.67597e-05)
(9.58037e-05 0 0 0 9.58037e-05 0 0 0 9.58037e-05)
(9.41004e-05 0 0 0 9.41004e-05 0 0 0 9.41004e-05)
(9.18075e-05 0 0 0 9.18075e-05 0 0 0 9.18075e-05)
(8.91392e-05 0 0 0 8.91392e-05 0 0 0 8.91392e-05)
(8.6327e-05 0 0 0 8.6327e-05 0 0 0 8.6327e-05)
(8.35855e-05 0 0 0 8.35855e-05 0 0 0 8.35855e-05)
(8.10873e-05 0 0 0 8.10873e-05 0 0 0 8.10873e-05)
(7.89497e-05 0 0 0 7.89497e-05 0 0 0 7.89497e-05)
(7.72316e-05 0 0 0 7.72316e-05 0 0 0 7.72316e-05)
(7.59368e-05 0 0 0 7.59368e-05 0 0 0 7.59368e-05)
(7.50213e-05 0 0 0 7.50213e-05 0 0 0 7.50213e-05)
(7.4403e-05 0 0 0 7.4403e-05 0 0 0 7.4403e-05)
(7.39738e-05 0 0 0 7.39738e-05 0 0 0 7.39738e-05)
(7.36126e-05 0 0 0 7.36126e-05 0 0 0 7.36126e-05)
(7.32008e-05 0 0 0 7.32008e-05 0 0 0 7.32008e-05)
(7.26382e-05 0 0 0 7.26382e-05 0 0 0 7.26382e-05)
(7.1856e-05 0 0 0 7.1856e-05 0 0 0 7.1856e-05)
(7.08268e-05 0 0 0 7.08268e-05 0 0 0 7.08268e-05)
(6.95665e-05 0 0 0 6.95665e-05 0 0 0 6.95665e-05)
(6.81304e-05 0 0 0 6.81304e-05 0 0 0 6.81304e-05)
(6.66028e-05 0 0 0 6.66028e-05 0 0 0 6.66028e-05)
(6.50842e-05 0 0 0 6.50842e-05 0 0 0 6.50842e-05)
(6.36778e-05 0 0 0 6.36778e-05 0 0 0 6.36778e-05)
(6.24792e-05 0 0 0 6.24792e-05 0 0 0 6.24792e-05)
(6.1569e-05 0 0 0 6.1569e-05 0 0 0 6.1569e-05)
(6.10093e-05 0 0 0 6.10093e-05 0 0 0 6.10093e-05)
(6.08436e-05 0 0 0 6.08436e-05 0 0 0 6.08436e-05)
(6.10973e-05 0 0 0 6.10973e-05 0 0 0 6.10973e-05)
(6.17804e-05 0 0 0 6.17804e-05 0 0 0 6.17804e-05)
(6.2889e-05 0 0 0 6.2889e-05 0 0 0 6.2889e-05)
(6.44073e-05 0 0 0 6.44073e-05 0 0 0 6.44073e-05)
(6.6308e-05 0 0 0 6.6308e-05 0 0 0 6.6308e-05)
(6.85532e-05 0 0 0 6.85532e-05 0 0 0 6.85532e-05)
(7.10932e-05 0 0 0 7.10932e-05 0 0 0 7.10932e-05)
(7.38661e-05 0 0 0 7.38661e-05 0 0 0 7.38661e-05)
(7.67964e-05 0 0 0 7.67964e-05 0 0 0 7.67964e-05)
(7.97939e-05 0 0 0 7.97939e-05 0 0 0 7.97939e-05)
(8.2754e-05 0 0 0 8.2754e-05 0 0 0 8.2754e-05)
(8.556e-05 0 0 0 8.556e-05 0 0 0 8.556e-05)
(8.8088e-05 0 0 0 8.8088e-05 0 0 0 8.8088e-05)
(9.02156e-05 0 0 0 9.02156e-05 0 0 0 9.02156e-05)
(9.18338e-05 0 0 0 9.18338e-05 0 0 0 9.18338e-05)
(9.28612e-05 0 0 0 9.28612e-05 0 0 0 9.28612e-05)
(9.32573e-05 0 0 0 9.32573e-05 0 0 0 9.32573e-05)
(9.30333e-05 0 0 0 9.30333e-05 0 0 0 9.30333e-05)
(9.2256e-05 0 0 0 9.2256e-05 0 0 0 9.2256e-05)
(9.10443e-05 0 0 0 9.10443e-05 0 0 0 9.10443e-05)
(8.95589e-05 0 0 0 8.95589e-05 0 0 0 8.95589e-05)
(8.79863e-05 0 0 0 8.79863e-05 0 0 0 8.79863e-05)
(8.65212e-05 0 0 0 8.65212e-05 0 0 0 8.65212e-05)
(8.53507e-05 0 0 0 8.53507e-05 0 0 0 8.53507e-05)
(8.46414e-05 0 0 0 8.46414e-05 0 0 0 8.46414e-05)
(8.45312e-05 0 0 0 8.45312e-05 0 0 0 8.45312e-05)
(8.51238e-05 0 0 0 8.51238e-05 0 0 0 8.51238e-05)
(8.6485e-05 0 0 0 8.6485e-05 0 0 0 8.6485e-05)
(8.8639e-05 0 0 0 8.8639e-05 0 0 0 8.8639e-05)
(9.15632e-05 0 0 0 9.15632e-05 0 0 0 9.15632e-05)
(9.51831e-05 0 0 0 9.51831e-05 0 0 0 9.51831e-05)
(9.93684e-05 0 0 0 9.93684e-05 0 0 0 9.93684e-05)
(0.000103934 0 0 0 0.000103934 0 0 0 0.000103934)
(0.00010865 0 0 0 0.00010865 0 0 0 0.00010865)
(0.000113261 0 0 0 0.000113261 0 0 0 0.000113261)
(0.000117519 0 0 0 0.000117519 0 0 0 0.000117519)
(0.000121214 0 0 0 0.000121214 0 0 0 0.000121214)
(0.000124213 0 0 0 0.000124213 0 0 0 0.000124213)
(0.000126476 0 0 0 0.000126476 0 0 0 0.000126476)
(0.000128063 0 0 0 0.000128063 0 0 0 0.000128063)
(0.000129118 0 0 0 0.000129118 0 0 0 0.000129118)
(0.000129843 0 0 0 0.000129843 0 0 0 0.000129843)
(0.000130459 0 0 0 0.000130459 0 0 0 0.000130459)
(0.000131177 0 0 0 0.000131177 0 0 0 0.000131177)
(0.000132166 0 0 0 0.000132166 0 0 0 0.000132166)
(0.000133536 0 0 0 0.000133536 0 0 0 0.000133536)
(0.000135329 0 0 0 0.000135329 0 0 0 0.000135329)
(0.000137514 0 0 0 0.000137514 0 0 0 0.000137514)
(0.000139994 0 0 0 0.000139994 0 0 0 0.000139994)
(0.000142625 0 0 0 0.000142625 0 0 0 0.000142625)
(0.000145236 0 0 0 0.000145236 0 0 0 0.000145236)
(0.00014766 0 0 0 0.00014766 0 0 0 0.00014766)
(0.00014977 0 0 0 0.00014977 0 0 0 0.00014977)
(0.000151508 0 0 0 0.000151508 0 0 0 0.000151508)
(0.000152908 0 0 0 0.000152908 0 0 0 0.000152908)
(0.000154097 0 0 0 0.000154097 0 0 0 0.000154097)
(0.000155287 0 0 0 0.000155287 0 0 0 0.000155287)
(0.000156752 0 0 0 0.000156752 0 0 0 0.000156752)
(0.000158796 0 0 0 0.000158796 0 0 0 0.000158796)
(0.00016172 0 0 0 0.00016172 0 0 0 0.00016172)
(0.000165793 0 0 0 0.000165793 0 0 0 0.000165793)
(0.000171224 0 0 0 0.000171224 0 0 0 0.000171224)
(0.000178129 0 0 0 0.000178129 0 0 0 0.000178129)
(0.00018651 0 0 0 0.00018651 0 0 0 0.00018651)
(0.00019622 0 0 0 0.00019622 0 0 0 0.00019622)
(0.000206944 0 0 0 0.000206944 0 0 0 0.000206944)
(0.000218191 0 0 0 0.000218191 0 0 0 0.000218191)
(0.000229319 0 0 0 0.000229319 0 0 0 0.000229319)
(0.000239595 0 0 0 0.000239595 0 0 0 0.000239595)
(0.000248295 0 0 0 0.000248295 0 0 0 0.000248295)
(0.000254822 0 0 0 0.000254822 0 0 0 0.000254822)
(0.000258821 0 0 0 0.000258821 0 0 0 0.000258821)
(0.000260246 0 0 0 0.000260246 0 0 0 0.000260246)
(0.000259372 0 0 0 0.000259372 0 0 0 0.000259372)
(0.000256737 0 0 0 0.000256737 0 0 0 0.000256737)
(0.000253041 0 0 0 0.000253041 0 0 0 0.000253041)
(0.000249032 0 0 0 0.000249032 0 0 0 0.000249032)
(0.000245406 0 0 0 0.000245406 0 0 0 0.000245406)
(0.000242735 0 0 0 0.000242735 0 0 0 0.000242735)
(0.000241428 0 0 0 0.000241428 0 0 0 0.000241428)
(0.000241713 0 0 0 0.000241713 0 0 0 0.000241713)
(0.000243642 0 0 0 0.000243642 0 0 0 0.000243642)
(0.000247095 0 0 0 0.000247095 0 0 0 0.000247095)
(0.000251793 0 0 0 0.000251793 0 0 0 0.000251793)
(0.000257326 0 0 0 0.000257326 0 0 0 0.000257326)
(0.000263179 0 0 0 0.000263179 0 0 0 0.000263179)
(0.000268795 0 0 0 0.000268795 0 0 0 0.000268795)
(0.000273634 0 0 0 0.000273634 0 0 0 0.000273634)
(0.000277247 0 0 0 0.000277247 0 0 0 0.000277247)
(0.000183085 0 0 0 0.000183085 0 0 0 0.000183085)
(0.00018548 0 0 0 0.00018548 0 0 0 0.00018548)
(0.000188134 0 0 0 0.000188134 0 0 0 0.000188134)
(0.000191127 0 0 0 0.000191127 0 0 0 0.000191127)
(0.000194529 0 0 0 0.000194529 0 0 0 0.000194529)
(0.000198368 0 0 0 0.000198368 0 0 0 0.000198368)
(0.00020262 0 0 0 0.00020262 0 0 0 0.00020262)
(0.000207185 0 0 0 0.000207185 0 0 0 0.000207185)
(0.000211888 0 0 0 0.000211888 0 0 0 0.000211888)
(0.000216477 0 0 0 0.000216477 0 0 0 0.000216477)
(0.000220637 0 0 0 0.000220637 0 0 0 0.000220637)
(0.00022402 0 0 0 0.00022402 0 0 0 0.00022402)
(0.000226286 0 0 0 0.000226286 0 0 0 0.000226286)
(0.000227151 0 0 0 0.000227151 0 0 0 0.000227151)
(0.000226425 0 0 0 0.000226425 0 0 0 0.000226425)
(0.000224053 0 0 0 0.000224053 0 0 0 0.000224053)
(0.000220119 0 0 0 0.000220119 0 0 0 0.000220119)
(0.000214838 0 0 0 0.000214838 0 0 0 0.000214838)
(0.000208521 0 0 0 0.000208521 0 0 0 0.000208521)
(0.000201531 0 0 0 0.000201531 0 0 0 0.000201531)
(0.000194233 0 0 0 0.000194233 0 0 0 0.000194233)
(0.000186952 0 0 0 0.000186952 0 0 0 0.000186952)
(0.00017995 0 0 0 0.00017995 0 0 0 0.00017995)
(0.000173407 0 0 0 0.000173407 0 0 0 0.000173407)
(0.000167424 0 0 0 0.000167424 0 0 0 0.000167424)
(0.000162029 0 0 0 0.000162029 0 0 0 0.000162029)
(0.000157192 0 0 0 0.000157192 0 0 0 0.000157192)
(0.000152849 0 0 0 0.000152849 0 0 0 0.000152849)
(0.000148917 0 0 0 0.000148917 0 0 0 0.000148917)
(0.000145312 0 0 0 0.000145312 0 0 0 0.000145312)
(0.000141974 0 0 0 0.000141974 0 0 0 0.000141974)
(0.00013887 0 0 0 0.00013887 0 0 0 0.00013887)
(0.000136008 0 0 0 0.000136008 0 0 0 0.000136008)
(0.000133433 0 0 0 0.000133433 0 0 0 0.000133433)
(0.000131222 0 0 0 0.000131222 0 0 0 0.000131222)
(0.000129475 0 0 0 0.000129475 0 0 0 0.000129475)
(0.0001283 0 0 0 0.0001283 0 0 0 0.0001283)
(0.000127797 0 0 0 0.000127797 0 0 0 0.000127797)
(0.000128046 0 0 0 0.000128046 0 0 0 0.000128046)
(0.000129091 0 0 0 0.000129091 0 0 0 0.000129091)
(0.000130927 0 0 0 0.000130927 0 0 0 0.000130927)
(0.000133488 0 0 0 0.000133488 0 0 0 0.000133488)
(0.000136632 0 0 0 0.000136632 0 0 0 0.000136632)
(0.000140139 0 0 0 0.000140139 0 0 0 0.000140139)
(0.000143706 0 0 0 0.000143706 0 0 0 0.000143706)
(0.00014697 0 0 0 0.00014697 0 0 0 0.00014697)
(0.000149533 0 0 0 0.000149533 0 0 0 0.000149533)
(0.00015101 0 0 0 0.00015101 0 0 0 0.00015101)
(0.000151092 0 0 0 0.000151092 0 0 0 0.000151092)
(0.000149599 0 0 0 0.000149599 0 0 0 0.000149599)
(0.000146516 0 0 0 0.000146516 0 0 0 0.000146516)
(0.000142005 0 0 0 0.000142005 0 0 0 0.000142005)
(0.000136375 0 0 0 0.000136375 0 0 0 0.000136375)
(0.000130035 0 0 0 0.000130035 0 0 0 0.000130035)
(0.000123429 0 0 0 0.000123429 0 0 0 0.000123429)
(0.000116978 0 0 0 0.000116978 0 0 0 0.000116978)
(0.000111035 0 0 0 0.000111035 0 0 0 0.000111035)
(0.000105866 0 0 0 0.000105866 0 0 0 0.000105866)
(0.000101645 0 0 0 0.000101645 0 0 0 0.000101645)
(9.84597e-05 0 0 0 9.84597e-05 0 0 0 9.84597e-05)
(9.63236e-05 0 0 0 9.63236e-05 0 0 0 9.63236e-05)
(9.51891e-05 0 0 0 9.51891e-05 0 0 0 9.51891e-05)
(9.49543e-05 0 0 0 9.49543e-05 0 0 0 9.49543e-05)
(9.54678e-05 0 0 0 9.54678e-05 0 0 0 9.54678e-05)
(9.65324e-05 0 0 0 9.65324e-05 0 0 0 9.65324e-05)
(9.7911e-05 0 0 0 9.7911e-05 0 0 0 9.7911e-05)
(9.93381e-05 0 0 0 9.93381e-05 0 0 0 9.93381e-05)
(0.000100541 0 0 0 0.000100541 0 0 0 0.000100541)
(0.000101266 0 0 0 0.000101266 0 0 0 0.000101266)
(0.000101313 0 0 0 0.000101313 0 0 0 0.000101313)
(0.000100561 0 0 0 0.000100561 0 0 0 0.000100561)
(9.8987e-05 0 0 0 9.8987e-05 0 0 0 9.8987e-05)
(9.66671e-05 0 0 0 9.66671e-05 0 0 0 9.66671e-05)
(9.37592e-05 0 0 0 9.37592e-05 0 0 0 9.37592e-05)
(9.04749e-05 0 0 0 9.04749e-05 0 0 0 9.04749e-05)
(8.70459e-05 0 0 0 8.70459e-05 0 0 0 8.70459e-05)
(8.36929e-05 0 0 0 8.36929e-05 0 0 0 8.36929e-05)
(8.06031e-05 0 0 0 8.06031e-05 0 0 0 8.06031e-05)
(7.7917e-05 0 0 0 7.7917e-05 0 0 0 7.7917e-05)
(7.57239e-05 0 0 0 7.57239e-05 0 0 0 7.57239e-05)
(7.40637e-05 0 0 0 7.40637e-05 0 0 0 7.40637e-05)
(7.29305e-05 0 0 0 7.29305e-05 0 0 0 7.29305e-05)
(7.22784e-05 0 0 0 7.22784e-05 0 0 0 7.22784e-05)
(7.20269e-05 0 0 0 7.20269e-05 0 0 0 7.20269e-05)
(7.20663e-05 0 0 0 7.20663e-05 0 0 0 7.20663e-05)
(7.22652e-05 0 0 0 7.22652e-05 0 0 0 7.22652e-05)
(7.24807e-05 0 0 0 7.24807e-05 0 0 0 7.24807e-05)
(7.25715e-05 0 0 0 7.25715e-05 0 0 0 7.25715e-05)
(7.24128e-05 0 0 0 7.24128e-05 0 0 0 7.24128e-05)
(7.19124e-05 0 0 0 7.19124e-05 0 0 0 7.19124e-05)
(7.10224e-05 0 0 0 7.10224e-05 0 0 0 7.10224e-05)
(6.97456e-05 0 0 0 6.97456e-05 0 0 0 6.97456e-05)
(6.81332e-05 0 0 0 6.81332e-05 0 0 0 6.81332e-05)
(6.62761e-05 0 0 0 6.62761e-05 0 0 0 6.62761e-05)
(6.42892e-05 0 0 0 6.42892e-05 0 0 0 6.42892e-05)
(6.22961e-05 0 0 0 6.22961e-05 0 0 0 6.22961e-05)
(6.04129e-05 0 0 0 6.04129e-05 0 0 0 6.04129e-05)
(5.87381e-05 0 0 0 5.87381e-05 0 0 0 5.87381e-05)
(5.73451e-05 0 0 0 5.73451e-05 0 0 0 5.73451e-05)
(5.62801e-05 0 0 0 5.62801e-05 0 0 0 5.62801e-05)
(5.55616e-05 0 0 0 5.55616e-05 0 0 0 5.55616e-05)
(5.51831e-05 0 0 0 5.51831e-05 0 0 0 5.51831e-05)
(5.51159e-05 0 0 0 5.51159e-05 0 0 0 5.51159e-05)
(5.53126e-05 0 0 0 5.53126e-05 0 0 0 5.53126e-05)
(5.57128e-05 0 0 0 5.57128e-05 0 0 0 5.57128e-05)
(5.62486e-05 0 0 0 5.62486e-05 0 0 0 5.62486e-05)
(5.68526e-05 0 0 0 5.68526e-05 0 0 0 5.68526e-05)
(5.74662e-05 0 0 0 5.74662e-05 0 0 0 5.74662e-05)
(5.80483e-05 0 0 0 5.80483e-05 0 0 0 5.80483e-05)
(5.85816e-05 0 0 0 5.85816e-05 0 0 0 5.85816e-05)
(5.90763e-05 0 0 0 5.90763e-05 0 0 0 5.90763e-05)
(5.95698e-05 0 0 0 5.95698e-05 0 0 0 5.95698e-05)
(6.01226e-05 0 0 0 6.01226e-05 0 0 0 6.01226e-05)
(6.08107e-05 0 0 0 6.08107e-05 0 0 0 6.08107e-05)
(6.17166e-05 0 0 0 6.17166e-05 0 0 0 6.17166e-05)
(6.29197e-05 0 0 0 6.29197e-05 0 0 0 6.29197e-05)
(6.44869e-05 0 0 0 6.44869e-05 0 0 0 6.44869e-05)
(6.6463e-05 0 0 0 6.6463e-05 0 0 0 6.6463e-05)
(6.8862e-05 0 0 0 6.8862e-05 0 0 0 6.8862e-05)
(7.1659e-05 0 0 0 7.1659e-05 0 0 0 7.1659e-05)
(7.47831e-05 0 0 0 7.47831e-05 0 0 0 7.47831e-05)
(7.81146e-05 0 0 0 7.81146e-05 0 0 0 7.81146e-05)
(8.14882e-05 0 0 0 8.14882e-05 0 0 0 8.14882e-05)
(8.47056e-05 0 0 0 8.47056e-05 0 0 0 8.47056e-05)
(8.75579e-05 0 0 0 8.75579e-05 0 0 0 8.75579e-05)
(8.98572e-05 0 0 0 8.98572e-05 0 0 0 8.98572e-05)
(9.14691e-05 0 0 0 9.14691e-05 0 0 0 9.14691e-05)
(9.23408e-05 0 0 0 9.23408e-05 0 0 0 9.23408e-05)
(9.2515e-05 0 0 0 9.2515e-05 0 0 0 9.2515e-05)
(9.21263e-05 0 0 0 9.21263e-05 0 0 0 9.21263e-05)
(9.13818e-05 0 0 0 9.13818e-05 0 0 0 9.13818e-05)
(9.05315e-05 0 0 0 9.05315e-05 0 0 0 9.05315e-05)
(8.98369e-05 0 0 0 8.98369e-05 0 0 0 8.98369e-05)
(8.95447e-05 0 0 0 8.95447e-05 0 0 0 8.95447e-05)
(8.9868e-05 0 0 0 8.9868e-05 0 0 0 8.9868e-05)
(9.09758e-05 0 0 0 9.09758e-05 0 0 0 9.09758e-05)
(9.29858e-05 0 0 0 9.29858e-05 0 0 0 9.29858e-05)
(9.59595e-05 0 0 0 9.59595e-05 0 0 0 9.59595e-05)
(9.98951e-05 0 0 0 9.98951e-05 0 0 0 9.98951e-05)
(0.00010472 0 0 0 0.00010472 0 0 0 0.00010472)
(0.000110283 0 0 0 0.000110283 0 0 0 0.000110283)
(0.000116354 0 0 0 0.000116354 0 0 0 0.000116354)
(0.000122636 0 0 0 0.000122636 0 0 0 0.000122636)
(0.000128791 0 0 0 0.000128791 0 0 0 0.000128791)
(0.000134483 0 0 0 0.000134483 0 0 0 0.000134483)
(0.000139432 0 0 0 0.000139432 0 0 0 0.000139432)
(0.000143461 0 0 0 0.000143461 0 0 0 0.000143461)
(0.000146527 0 0 0 0.000146527 0 0 0 0.000146527)
(0.000148724 0 0 0 0.000148724 0 0 0 0.000148724)
(0.000150266 0 0 0 0.000150266 0 0 0 0.000150266)
(0.000151439 0 0 0 0.000151439 0 0 0 0.000151439)
(0.000152557 0 0 0 0.000152557 0 0 0 0.000152557)
(0.000153906 0 0 0 0.000153906 0 0 0 0.000153906)
(0.000155713 0 0 0 0.000155713 0 0 0 0.000155713)
(0.000158112 0 0 0 0.000158112 0 0 0 0.000158112)
(0.000161129 0 0 0 0.000161129 0 0 0 0.000161129)
(0.000164673 0 0 0 0.000164673 0 0 0 0.000164673)
(0.00016854 0 0 0 0.00016854 0 0 0 0.00016854)
(0.000172432 0 0 0 0.000172432 0 0 0 0.000172432)
(0.000175992 0 0 0 0.000175992 0 0 0 0.000175992)
(0.000178857 0 0 0 0.000178857 0 0 0 0.000178857)
(0.000180723 0 0 0 0.000180723 0 0 0 0.000180723)
(0.000181408 0 0 0 0.000181408 0 0 0 0.000181408)
(0.000180897 0 0 0 0.000180897 0 0 0 0.000180897)
(0.000179356 0 0 0 0.000179356 0 0 0 0.000179356)
(0.000177116 0 0 0 0.000177116 0 0 0 0.000177116)
(0.000174623 0 0 0 0.000174623 0 0 0 0.000174623)
(0.000172378 0 0 0 0.000172378 0 0 0 0.000172378)
(0.000170879 0 0 0 0.000170879 0 0 0 0.000170879)
(0.000170579 0 0 0 0.000170579 0 0 0 0.000170579)
(0.000171856 0 0 0 0.000171856 0 0 0 0.000171856)
(0.000174995 0 0 0 0.000174995 0 0 0 0.000174995)
(0.000180181 0 0 0 0.000180181 0 0 0 0.000180181)
(0.000187478 0 0 0 0.000187478 0 0 0 0.000187478)
(0.000196807 0 0 0 0.000196807 0 0 0 0.000196807)
(0.000207924 0 0 0 0.000207924 0 0 0 0.000207924)
(0.000220399 0 0 0 0.000220399 0 0 0 0.000220399)
(0.000233616 0 0 0 0.000233616 0 0 0 0.000233616)
(0.000246811 0 0 0 0.000246811 0 0 0 0.000246811)
(0.000259159 0 0 0 0.000259159 0 0 0 0.000259159)
(0.00026989 0 0 0 0.00026989 0 0 0 0.00026989)
(0.000278421 0 0 0 0.000278421 0 0 0 0.000278421)
(0.000284463 0 0 0 0.000284463 0 0 0 0.000284463)
(0.000288071 0 0 0 0.000288071 0 0 0 0.000288071)
(0.000289622 0 0 0 0.000289622 0 0 0 0.000289622)
(0.00028973 0 0 0 0.00028973 0 0 0 0.00028973)
(0.000289125 0 0 0 0.000289125 0 0 0 0.000289125)
(0.000288535 0 0 0 0.000288535 0 0 0 0.000288535)
(0.000288586 0 0 0 0.000288586 0 0 0 0.000288586)