/*--------------------------------*- C++ -*----------------------------------*\
  =========                 |
  \\      /  F ield         | OpenFOAM: The Open Source CFD Toolbox
   \\    /   O peration     | Website:  https://openfoam.org
    \\  /    A nd           | Version:  6
     \\/     M anipulation  |
\*---------------------------------------------------------------------------*/
FoamFile
{
    version     2.0;
    format      ascii;
    class       dictionary;
    location    "constant";
    object      multiRateProperties;
}
// * * * * * * * * * * * * * * * * * * * * * * * * * * * * * * * * * * * * * //

numberExp 2;
adaptiveTimeStepping true;
maxCo 0.95 ;

immobileRegions
(
Layer1
{
type          Layers;
numberOfTermsInExpansion     $numberExp;
rescale Betas false; 
}
Cylinder1
{
type          Cylinders;
numberOfTermsInExpansion     $numberExp;
rescale Betas false;
}
Sphere1
{
type          Spheres;
numberOfTermsInExpansion     $numberExp;
rescale Betas false;
}
Sphere2
{
type          Spheres;
numberOfTermsInExpansion     $numberExp;
rescale Betas false;
}
    immobile1
    {
        type                      FirstOrderRegions;
        numberOfTermsInExpansion                    1;
        alphaCoeffs                nonuniform (2.76e-6);
        betaCoeffs           nonuniform (0.5);
    }

    immobile2
    {
        type                      FirstOrderRegions;
        numberOfTermsInExpansion                    1;
        alphaCoeffs                nonuniform (4.42e-5);
        betaCoeffs           nonuniform (0.1);
    }


);
