/*--------------------------------*- C++ -*----------------------------------*\
  =========                 |
  \\      /  F ield         | OpenFOAM: The Open Source CFD Toolbox
   \\    /   O peration     | Website:  https://openfoam.org
    \\  /    A nd           | Version:  6
     \\/     M anipulation  |
\*---------------------------------------------------------------------------*/
FoamFile
{
    version     2.0;
    format      ascii;
    class       dictionary;
    location    "system";
    object      fvSchemes;
}
// * * * * * * * * * * * * * * * * * * * * * * * * * * * * * * * * * * * * * //

ddtSchemes
{
    default         backward;
}

gradSchemes
{
    default       cellLimited  leastSquares 1;
//Gauss linear 1;
}

divSchemes
{
    default         none;
    div(phi,c)      bounded Gauss vanLeer01;
}

laplacianSchemes
{
    default         none;
    laplacian(Dc,c) Gauss linear corrected;
    laplacian(hydMf,p) Gauss linear corrected;
}

interpolationSchemes
{
    default         linear;
}

snGradSchemes
{
      default limited 1;
//    default         corrected;
}


// ************************************************************************* //
