/*--------------------------------*- C++ -*----------------------------------*\
  =========                 |
  \\      /  F ield         | OpenFOAM: The Open Source CFD Toolbox
   \\    /   O peration     | Website:  https://openfoam.org
    \\  /    A nd           | Version:  6
     \\/     M anipulation  |
\*---------------------------------------------------------------------------*/
FoamFile
{
    version     2.0;
    format      ascii;
    class       dictionary;
    location    "system";
    object      fvSolution;
}
// * * * * * * * * * * * * * * * * * * * * * * * * * * * * * * * * * * * * * //

solvers
{
    c
    {
        solver          PBiCGStab;
        preconditioner  DILU;
        tolerance       1e-10;
        relTol          0;
    }

     c_immobile_term0
     {
        $c
     }

    cFinal
    {
        $c
    }

     "c_immobile_.*"
     {
        $c
     }

}


PIMPLE
{
    nNonOrthogonalCorrectors 0;
    nOuterCorrectors 20;

    outerCorrectorResidualControl
    {
        c
		{
	   		tolerance  1e-8;
	   		relTol     0;
		}
    }

}


// ************************************************************************* //
